testcases/gridlabd/HL0004/HL0004_glmfile_loads.glm

object load {
	name N_1700060228;
	phases ABC;
	nominal_voltage 12597.206;
	constant_power_A_real load_shape_A*230.116666667;
	constant_power_B_real load_shape_B*230.116666667;
	constant_power_C_real load_shape_C*230.116666667;
	constant_power_A_reac load_shape_A*75.6356906701;
	constant_power_B_reac load_shape_B*75.6356906701;
	constant_power_C_reac load_shape_C*75.6356906701;
}

object load {
	name N_1700060227;
	phases ABC;
	nominal_voltage 12597.206;
	constant_power_A_real load_shape_A*573.273;
	constant_power_B_real load_shape_B*573.273;
	constant_power_C_real load_shape_C*573.273;
	constant_power_A_reac load_shape_A*188.425723028;
	constant_power_B_reac load_shape_B*188.425723028;
	constant_power_C_reac load_shape_C*188.425723028;
}

object load {
	name N_1700093679;
	phases ABC;
	nominal_voltage 12597.206;
	constant_power_A_real load_shape_A*339.119333333;
	constant_power_B_real load_shape_B*339.119333333;
	constant_power_C_real load_shape_C*339.119333333;
	constant_power_A_reac load_shape_A*111.463134626;
	constant_power_B_reac load_shape_B*111.463134626;
	constant_power_C_reac load_shape_C*111.463134626;
}

object load {
	name N_1700093096;
	phases ABC;
	nominal_voltage 12597.206;
	constant_power_A_real load_shape_A*1146.546;
	constant_power_B_real load_shape_B*1146.546;
	constant_power_C_real load_shape_C*1146.546;
	constant_power_A_reac load_shape_A*376.851446056;
	constant_power_B_reac load_shape_B*376.851446056;
	constant_power_C_reac load_shape_C*376.851446056;
}

object load {
	name N_1700008890;
	phases ABC;
	nominal_voltage 12597.206;
	constant_power_A_real load_shape_A*8683.87533333;
	constant_power_B_real load_shape_B*8683.87533333;
	constant_power_C_real load_shape_C*8683.87533333;
	constant_power_A_reac load_shape_A*5381.78257323;
	constant_power_B_reac load_shape_B*5381.78257323;
	constant_power_C_reac load_shape_C*5381.78257323;
}

object load {
	name N_1700093676;
	phases ABC;
	nominal_voltage 12597.206;
	constant_power_A_real load_shape_A*1124.34166667;
	constant_power_B_real load_shape_B*1124.34166667;
	constant_power_C_real load_shape_C*1124.34166667;
	constant_power_A_reac load_shape_A*696.804382347;
	constant_power_B_reac load_shape_B*696.804382347;
	constant_power_C_reac load_shape_C*696.804382347;
}

object load {
	name N_1700121338;
	phases ABC;
	nominal_voltage 12597.206;
	constant_power_A_real load_shape_A*756.962666667;
	constant_power_B_real load_shape_B*756.962666667;
	constant_power_C_real load_shape_C*756.962666667;
	constant_power_A_reac load_shape_A*298.153672873;
	constant_power_B_reac load_shape_B*298.153672873;
	constant_power_C_reac load_shape_C*298.153672873;
}

object load {
	name N_1700091757;
	phases ABC;
	nominal_voltage 12597.206;
	constant_power_A_real load_shape_A*0.0;
	constant_power_B_real load_shape_B*0.0;
	constant_power_C_real load_shape_C*0.0;
	constant_power_A_reac load_shape_A*0.0;
	constant_power_B_reac load_shape_B*0.0;
	constant_power_C_reac load_shape_C*0.0;
}

object load {
	name N_1700093677;
	phases ABC;
	nominal_voltage 12597.206;
	constant_power_A_real load_shape_A*666.127;
	constant_power_B_real load_shape_B*666.127;
	constant_power_C_real load_shape_C*666.127;
	constant_power_A_reac load_shape_A*218.94535693;
	constant_power_B_reac load_shape_B*218.94535693;
	constant_power_C_reac load_shape_C*218.94535693;
}

object load {
	name N_1700011460;
	phases ABC;
	nominal_voltage 12597.206;
	constant_power_A_real load_shape_A*431.973333333;
	constant_power_B_real load_shape_B*431.973333333;
	constant_power_C_real load_shape_C*431.973333333;
	constant_power_A_reac load_shape_A*141.982768528;
	constant_power_B_reac load_shape_B*141.982768528;
	constant_power_C_reac load_shape_C*141.982768528;
}

object load {
	name N_1700093518;
	phases AB;
	nominal_voltage 12597.206;
	constant_power_A_real load_shape_A*0.0;
	constant_power_B_real load_shape_B*0.0;
	constant_power_C_real load_shape_C*0;
	constant_power_A_reac load_shape_A*0.0;
	constant_power_B_reac load_shape_B*0.0;
	constant_power_C_reac load_shape_C*0;
}

object load {
	name N_1700092976;
	phases ABC;
	nominal_voltage 12597.206;
	constant_power_A_real load_shape_A*329.026333333;
	constant_power_B_real load_shape_B*329.026333333;
	constant_power_C_real load_shape_C*329.026333333;
	constant_power_A_reac load_shape_A*108.145725952;
	constant_power_B_reac load_shape_B*108.145725952;
	constant_power_C_reac load_shape_C*108.145725952;
}

object load {
	name N_1700087545;
	phases C;
	nominal_voltage 12597.206;
	constant_power_A_real load_shape_A*0;
	constant_power_B_real load_shape_B*0;
	constant_power_C_real load_shape_C*4535.72;
	constant_power_A_reac load_shape_A*0;
	constant_power_B_reac load_shape_B*0;
	constant_power_C_reac load_shape_C*1490.81906954;
}

object load {
	name N_1700010392;
	phases ABC;
	nominal_voltage 12597.206;
	constant_power_A_real load_shape_A*1207.103;
	constant_power_B_real load_shape_B*1207.103;
	constant_power_C_real load_shape_C*1207.103;
	constant_power_A_reac load_shape_A*396.755569414;
	constant_power_B_reac load_shape_B*396.755569414;
	constant_power_C_reac load_shape_C*396.755569414;
}

object load {
	name N_1700010393;
	phases ABC;
	nominal_voltage 12597.206;
	constant_power_A_real load_shape_A*183.689666667;
	constant_power_B_real load_shape_B*183.689666667;
	constant_power_C_real load_shape_C*183.689666667;
	constant_power_A_reac load_shape_A*60.3758737189;
	constant_power_B_reac load_shape_B*60.3758737189;
	constant_power_C_reac load_shape_C*60.3758737189;
}

object load {
	name N_1700093041;
	phases ABC;
	nominal_voltage 12597.206;
	constant_power_A_real load_shape_A*1951.95433333;
	constant_power_B_real load_shape_B*1951.95433333;
	constant_power_C_real load_shape_C*1951.95433333;
	constant_power_A_reac load_shape_A*641.576363402;
	constant_power_B_reac load_shape_B*641.576363402;
	constant_power_C_reac load_shape_C*641.576363402;
}

object load {
	name N_1700281085;
	phases ABC;
	nominal_voltage 12597.206;
	constant_power_A_real load_shape_A*308.840666667;
	constant_power_B_real load_shape_B*308.840666667;
	constant_power_C_real load_shape_C*308.840666667;
	constant_power_A_reac load_shape_A*191.402254635;
	constant_power_B_reac load_shape_B*191.402254635;
	constant_power_C_reac load_shape_C*191.402254635;
}

object load {
	name N_1700093043;
	phases ABC;
	nominal_voltage 12597.206;
	constant_power_A_real load_shape_A*4854.65366667;
	constant_power_B_real load_shape_B*4854.65366667;
	constant_power_C_real load_shape_C*4854.65366667;
	constant_power_A_reac load_shape_A*3008.64412482;
	constant_power_B_reac load_shape_B*3008.64412482;
	constant_power_C_reac load_shape_C*3008.64412482;
}

object load {
	name N_1700123306;
	phases ABC;
	nominal_voltage 12597.206;
	constant_power_A_real load_shape_A*18756.5246667;
	constant_power_B_real load_shape_B*18756.5246667;
	constant_power_C_real load_shape_C*18756.5246667;
	constant_power_A_reac load_shape_A*11624.2499703;
	constant_power_B_reac load_shape_B*11624.2499703;
	constant_power_C_reac load_shape_C*11624.2499703;
}

object load {
	name N_1700093049;
	phases ABC;
	nominal_voltage 12597.206;
	constant_power_A_real load_shape_A*512.716;
	constant_power_B_real load_shape_B*512.716;
	constant_power_C_real load_shape_C*512.716;
	constant_power_A_reac load_shape_A*168.521599671;
	constant_power_B_reac load_shape_B*168.521599671;
	constant_power_C_reac load_shape_C*168.521599671;
}

object load {
	name N_1700010104;
	phases ABC;
	nominal_voltage 12597.206;
	constant_power_A_real load_shape_A*58.5383333333;
	constant_power_B_real load_shape_B*58.5383333333;
	constant_power_C_real load_shape_C*58.5383333333;
	constant_power_A_reac load_shape_A*35.1037905014;
	constant_power_B_reac load_shape_B*35.1037905014;
	constant_power_C_reac load_shape_C*35.1037905014;
}

object load {
	name N_1700061998;
	phases AB;
	nominal_voltage 12597.206;
	constant_power_A_real load_shape_A*1389.783;
	constant_power_B_real load_shape_B*1389.783;
	constant_power_C_real load_shape_C*0;
	constant_power_A_reac load_shape_A*456.799581748;
	constant_power_B_reac load_shape_B*456.799581748;
	constant_power_C_reac load_shape_C*0;
}

object load {
	name N_1700061999;
	phases AB;
	nominal_voltage 12597.206;
	constant_power_A_real load_shape_A*881.105;
	constant_power_B_real load_shape_B*881.105;
	constant_power_C_real load_shape_C*0;
	constant_power_A_reac load_shape_A*413.866680683;
	constant_power_B_reac load_shape_B*413.866680683;
	constant_power_C_reac load_shape_C*0;
}

object load {
	name N_1700069125;
	phases ABC;
	nominal_voltage 12597.206;
	constant_power_A_real load_shape_A*14122.4533333;
	constant_power_B_real load_shape_B*14122.4533333;
	constant_power_C_real load_shape_C*14122.4533333;
	constant_power_A_reac load_shape_A*8752.3104977;
	constant_power_B_reac load_shape_B*8752.3104977;
	constant_power_C_reac load_shape_C*8752.3104977;
}

object load {
	name N_1700070135;
	phases ABC;
	nominal_voltage 12597.206;
	constant_power_A_real load_shape_A*805.408333333;
	constant_power_B_real load_shape_B*805.408333333;
	constant_power_C_real load_shape_C*805.408333333;
	constant_power_A_reac load_shape_A*339.928090205;
	constant_power_B_reac load_shape_B*339.928090205;
	constant_power_C_reac load_shape_C*339.928090205;
}

object load {
	name N_1700018960;
	phases A;
	nominal_voltage 12597.206;
	constant_power_A_real load_shape_A*2719.01;
	constant_power_B_real load_shape_B*0;
	constant_power_C_real load_shape_C*0;
	constant_power_A_reac load_shape_A*893.695368822;
	constant_power_B_reac load_shape_B*0;
	constant_power_C_reac load_shape_C*0;
}

object load {
	name N_1700018008;
	phases ABC;
	nominal_voltage 12597.206;
	constant_power_A_real load_shape_A*3177.22433333;
	constant_power_B_real load_shape_B*3177.22433333;
	constant_power_C_real load_shape_C*3177.22433333;
	constant_power_A_reac load_shape_A*1969.06679242;
	constant_power_B_reac load_shape_B*1969.06679242;
	constant_power_C_reac load_shape_C*1969.06679242;
}

object load {
	name N_1700083138;
	phases AB;
	nominal_voltage 12597.206;
	constant_power_A_real load_shape_A*0.0;
	constant_power_B_real load_shape_B*0.0;
	constant_power_C_real load_shape_C*0;
	constant_power_A_reac load_shape_A*0.0;
	constant_power_B_reac load_shape_B*0.0;
	constant_power_C_reac load_shape_C*0;
}

object load {
	name N_1700018947;
	phases ABC;
	nominal_voltage 12597.206;
	constant_power_A_real load_shape_A*1334.27266667;
	constant_power_B_real load_shape_B*1334.27266667;
	constant_power_C_real load_shape_C*1334.27266667;
	constant_power_A_reac load_shape_A*438.554217508;
	constant_power_B_reac load_shape_B*438.554217508;
	constant_power_C_reac load_shape_C*438.554217508;
}

object load {
	name N_1700018940;
	phases AB;
	nominal_voltage 12597.206;
	constant_power_A_real load_shape_A*959.829;
	constant_power_B_real load_shape_B*959.829;
	constant_power_C_real load_shape_C*0;
	constant_power_A_reac load_shape_A*315.48053599;
	constant_power_B_reac load_shape_B*315.48053599;
	constant_power_C_reac load_shape_C*0;
}

object load {
	name N_1700092994;
	phases ABC;
	nominal_voltage 12597.206;
	constant_power_A_real load_shape_A*0.0;
	constant_power_B_real load_shape_B*0.0;
	constant_power_C_real load_shape_C*0.0;
	constant_power_A_reac load_shape_A*0.0;
	constant_power_B_reac load_shape_B*0.0;
	constant_power_C_reac load_shape_C*0.0;
}

object load {
	name N_1700092996;
	phases ABC;
	nominal_voltage 12597.206;
	constant_power_A_real load_shape_A*203.875333333;
	constant_power_B_real load_shape_B*203.875333333;
	constant_power_C_real load_shape_C*203.875333333;
	constant_power_A_reac load_shape_A*67.0105815047;
	constant_power_B_reac load_shape_B*67.0105815047;
	constant_power_C_reac load_shape_C*67.0105815047;
}

object load {
	name N_1700116327;
	phases A;
	nominal_voltage 12597.206;
	constant_power_A_real load_shape_A*1374.644;
	constant_power_B_real load_shape_B*0;
	constant_power_C_real load_shape_C*0;
	constant_power_A_reac load_shape_A*451.823633079;
	constant_power_B_reac load_shape_B*0;
	constant_power_C_reac load_shape_C*0;
}

object load {
	name N_1700093508;
	phases ABC;
	nominal_voltage 12597.206;
	constant_power_A_real load_shape_A*4396.439;
	constant_power_B_real load_shape_B*4396.439;
	constant_power_C_real load_shape_C*4396.439;
	constant_power_A_reac load_shape_A*2635.36439949;
	constant_power_B_reac load_shape_B*2635.36439949;
	constant_power_C_reac load_shape_C*2635.36439949;
}

object load {
	name N_1700011107;
	phases ABC;
	nominal_voltage 12597.206;
	constant_power_A_real load_shape_A*1875.24866667;
	constant_power_B_real load_shape_B*1875.24866667;
	constant_power_C_real load_shape_C*1875.24866667;
	constant_power_A_reac load_shape_A*1162.17474426;
	constant_power_B_reac load_shape_B*1162.17474426;
	constant_power_C_reac load_shape_C*1162.17474426;
}

object load {
	name N_1700078880;
	phases ABC;
	nominal_voltage 12597.206;
	constant_power_A_real load_shape_A*720.628333333;
	constant_power_B_real load_shape_B*720.628333333;
	constant_power_C_real load_shape_C*720.628333333;
	constant_power_A_reac load_shape_A*236.859078908;
	constant_power_B_reac load_shape_B*236.859078908;
	constant_power_C_reac load_shape_C*236.859078908;
}

object load {
	name N_1700093079;
	phases ABC;
	nominal_voltage 12597.206;
	constant_power_A_real load_shape_A*327.008;
	constant_power_B_real load_shape_B*327.008;
	constant_power_C_real load_shape_C*327.008;
	constant_power_A_reac load_shape_A*107.482331866;
	constant_power_B_reac load_shape_B*107.482331866;
	constant_power_C_reac load_shape_C*107.482331866;
}

object load {
	name N_1700092723;
	phases A;
	nominal_voltage 12597.206;
	constant_power_A_real load_shape_A*1314.087;
	constant_power_B_real load_shape_B*0;
	constant_power_C_real load_shape_C*0;
	constant_power_A_reac load_shape_A*431.919509722;
	constant_power_B_reac load_shape_B*0;
	constant_power_C_reac load_shape_C*0;
}

object load {
	name N_1700092722;
	phases A;
	nominal_voltage 12597.206;
	constant_power_A_real load_shape_A*2295.111;
	constant_power_B_real load_shape_B*0;
	constant_power_C_real load_shape_C*0;
	constant_power_A_reac load_shape_A*821.34441301;
	constant_power_B_reac load_shape_B*0;
	constant_power_C_reac load_shape_C*0;
}

object load {
	name N_1700092721;
	phases A;
	nominal_voltage 12597.206;
	constant_power_A_real load_shape_A*1901.49;
	constant_power_B_real load_shape_B*0;
	constant_power_C_real load_shape_C*0;
	constant_power_A_reac load_shape_A*624.989539157;
	constant_power_B_reac load_shape_B*0;
	constant_power_C_reac load_shape_C*0;
}

object load {
	name N_1700092720;
	phases AB;
	nominal_voltage 12597.206;
	constant_power_A_real load_shape_A*569.236;
	constant_power_B_real load_shape_B*569.236;
	constant_power_C_real load_shape_C*0;
	constant_power_A_reac load_shape_A*187.098825296;
	constant_power_B_reac load_shape_B*187.098825296;
	constant_power_C_reac load_shape_C*0;
}

object load {
	name N_1700092727;
	phases ABC;
	nominal_voltage 12597.206;
	constant_power_A_real load_shape_A*575.291666667;
	constant_power_B_real load_shape_B*575.291666667;
	constant_power_C_real load_shape_C*575.291666667;
	constant_power_A_reac load_shape_A*189.089226675;
	constant_power_B_reac load_shape_B*189.089226675;
	constant_power_C_reac load_shape_C*189.089226675;
}

object load {
	name N_1700092726;
	phases AB;
	nominal_voltage 12597.206;
	constant_power_A_real load_shape_A*1283.809;
	constant_power_B_real load_shape_B*1283.809;
	constant_power_C_real load_shape_C*0;
	constant_power_A_reac load_shape_A*421.967612386;
	constant_power_B_reac load_shape_B*421.967612386;
	constant_power_C_reac load_shape_C*0;
}

object load {
	name N_1700069891;
	phases ABC;
	nominal_voltage 12597.206;
	constant_power_A_real load_shape_A*0.0;
	constant_power_B_real load_shape_B*0.0;
	constant_power_C_real load_shape_C*0.0;
	constant_power_A_reac load_shape_A*0.0;
	constant_power_B_reac load_shape_B*0.0;
	constant_power_C_reac load_shape_C*0.0;
}

object load {
	name N_1700093570;
	phases ABC;
	nominal_voltage 12597.206;
	constant_power_A_real load_shape_A*644.192666667;
	constant_power_B_real load_shape_B*644.192666667;
	constant_power_C_real load_shape_C*644.192666667;
	constant_power_A_reac load_shape_A*308.755967948;
	constant_power_B_reac load_shape_B*308.755967948;
	constant_power_C_reac load_shape_C*308.755967948;
}

object load {
	name N_1700093632;
	phases ABC;
	nominal_voltage 12597.206;
	constant_power_A_real load_shape_A*0.0;
	constant_power_B_real load_shape_B*0.0;
	constant_power_C_real load_shape_C*0.0;
	constant_power_A_reac load_shape_A*0.0;
	constant_power_B_reac load_shape_B*0.0;
	constant_power_C_reac load_shape_C*0.0;
}

object load {
	name N_1700018892;
	phases ABC;
	nominal_voltage 12597.206;
	constant_power_A_real load_shape_A*3257.967;
	constant_power_B_real load_shape_B*3257.967;
	constant_power_C_real load_shape_C*3257.967;
	constant_power_A_reac load_shape_A*1070.8419681;
	constant_power_B_reac load_shape_B*1070.8419681;
	constant_power_C_reac load_shape_C*1070.8419681;
}

object load {
	name N_1700093630;
	phases ABC;
	nominal_voltage 12597.206;
	constant_power_A_real load_shape_A*987.079333333;
	constant_power_B_real load_shape_B*987.079333333;
	constant_power_C_real load_shape_C*987.079333333;
	constant_power_A_reac load_shape_A*611.736828388;
	constant_power_B_reac load_shape_B*611.736828388;
	constant_power_C_reac load_shape_C*611.736828388;
}

object load {
	name N_1700093936;
	phases AB;
	nominal_voltage 12597.206;
	constant_power_A_real load_shape_A*448.122;
	constant_power_B_real load_shape_B*448.122;
	constant_power_C_real load_shape_C*0;
	constant_power_A_reac load_shape_A*193.998760568;
	constant_power_B_reac load_shape_B*193.998760568;
	constant_power_C_reac load_shape_C*0;
}

object load {
	name N_1700093636;
	phases ABC;
	nominal_voltage 12597.206;
	constant_power_A_real load_shape_A*0.0;
	constant_power_B_real load_shape_B*0.0;
	constant_power_C_real load_shape_C*0.0;
	constant_power_A_reac load_shape_A*0.0;
	constant_power_B_reac load_shape_B*0.0;
	constant_power_C_reac load_shape_C*0.0;
}

object load {
	name N_1700093637;
	phases AB;
	nominal_voltage 12597.206;
	constant_power_A_real load_shape_A*1235.363;
	constant_power_B_real load_shape_B*1235.363;
	constant_power_C_real load_shape_C*0;
	constant_power_A_reac load_shape_A*406.044182226;
	constant_power_B_reac load_shape_B*406.044182226;
	constant_power_C_reac load_shape_C*0;
}

object load {
	name N_1700093635;
	phases ABC;
	nominal_voltage 12597.206;
	constant_power_A_real load_shape_A*286.636666667;
	constant_power_B_real load_shape_B*286.636666667;
	constant_power_C_real load_shape_C*286.636666667;
	constant_power_A_reac load_shape_A*94.2129162948;
	constant_power_B_reac load_shape_B*94.2129162948;
	constant_power_C_reac load_shape_C*94.2129162948;
}

object load {
	name N_1700092299;
	phases AB;
	nominal_voltage 12597.206;
	constant_power_A_real load_shape_A*681.266;
	constant_power_B_real load_shape_B*681.266;
	constant_power_C_real load_shape_C*0;
	constant_power_A_reac load_shape_A*223.921305599;
	constant_power_B_reac load_shape_B*223.921305599;
	constant_power_C_reac load_shape_C*0;
}

object load {
	name N_1700092298;
	phases AB;
	nominal_voltage 12597.206;
	constant_power_A_real load_shape_A*0.0;
	constant_power_B_real load_shape_B*0.0;
	constant_power_C_real load_shape_C*0;
	constant_power_A_reac load_shape_A*0.0;
	constant_power_B_reac load_shape_B*0.0;
	constant_power_C_reac load_shape_C*0;
}

object load {
	name N_1700081389;
	phases AB;
	nominal_voltage 12597.206;
	constant_power_A_real load_shape_A*1604.761;
	constant_power_B_real load_shape_B*1604.761;
	constant_power_C_real load_shape_C*0;
	constant_power_A_reac load_shape_A*552.135519884;
	constant_power_B_reac load_shape_B*552.135519884;
	constant_power_C_reac load_shape_C*0;
}

object load {
	name N_1700008931;
	phases ABC;
	nominal_voltage 12597.206;
	constant_power_A_real load_shape_A*159.466666667;
	constant_power_B_real load_shape_B*159.466666667;
	constant_power_C_real load_shape_C*159.466666667;
	constant_power_A_reac load_shape_A*98.8285638307;
	constant_power_B_reac load_shape_B*98.8285638307;
	constant_power_C_reac load_shape_C*98.8285638307;
}

object load {
	name N_1700092810;
	phases AB;
	nominal_voltage 12597.206;
	constant_power_A_real load_shape_A*2313.278;
	constant_power_B_real load_shape_B*2313.278;
	constant_power_C_real load_shape_C*0;
	constant_power_A_reac load_shape_A*760.33770946;
	constant_power_B_reac load_shape_B*760.33770946;
	constant_power_C_reac load_shape_C*0;
}

object load {
	name N_1700093077;
	phases ABC;
	nominal_voltage 12597.206;
	constant_power_A_real load_shape_A*688.331333333;
	constant_power_B_real load_shape_B*688.331333333;
	constant_power_C_real load_shape_C*688.331333333;
	constant_power_A_reac load_shape_A*226.243568363;
	constant_power_B_reac load_shape_B*226.243568363;
	constant_power_C_reac load_shape_C*226.243568363;
}

object load {
	name N_1700092780;
	phases AB;
	nominal_voltage 12597.206;
	constant_power_A_real load_shape_A*1625.956;
	constant_power_B_real load_shape_B*1625.956;
	constant_power_C_real load_shape_C*0;
	constant_power_A_reac load_shape_A*534.42589292;
	constant_power_B_reac load_shape_B*534.42589292;
	constant_power_C_reac load_shape_C*0;
}

object load {
	name N_1700094192;
	phases ABC;
	nominal_voltage 12597.206;
	constant_power_A_real load_shape_A*1364.55133333;
	constant_power_B_real load_shape_B*1364.55133333;
	constant_power_C_real load_shape_C*1364.55133333;
	constant_power_A_reac load_shape_A*448.506333967;
	constant_power_B_reac load_shape_B*448.506333967;
	constant_power_C_reac load_shape_C*448.506333967;
}

object load {
	name N_1700008429;
	phases AB;
	nominal_voltage 12597.206;
	constant_power_A_real load_shape_A*844.77;
	constant_power_B_real load_shape_B*844.77;
	constant_power_C_real load_shape_C*0;
	constant_power_A_reac load_shape_A*277.662471532;
	constant_power_B_reac load_shape_B*277.662471532;
	constant_power_C_reac load_shape_C*0;
}

object load {
	name N_1700094419;
	phases ABC;
	nominal_voltage 12597.206;
	constant_power_A_real load_shape_A*22904.3086667;
	constant_power_B_real load_shape_B*22904.3086667;
	constant_power_C_real load_shape_C*22904.3086667;
	constant_power_A_reac load_shape_A*14194.8156212;
	constant_power_B_reac load_shape_B*14194.8156212;
	constant_power_C_reac load_shape_C*14194.8156212;
}

object load {
	name N_1700018714;
	phases C;
	nominal_voltage 12597.206;
	constant_power_A_real load_shape_A*0;
	constant_power_B_real load_shape_B*0;
	constant_power_C_real load_shape_C*5056.51;
	constant_power_A_reac load_shape_A*0;
	constant_power_B_reac load_shape_B*0;
	constant_power_C_reac load_shape_C*1661.99446468;
}

object load {
	name N_1700093579;
	phases AB;
	nominal_voltage 12597.206;
	constant_power_A_real load_shape_A*1205.084;
	constant_power_B_real load_shape_B*1205.084;
	constant_power_C_real load_shape_C*0;
	constant_power_A_reac load_shape_A*664.884335227;
	constant_power_B_reac load_shape_B*664.884335227;
	constant_power_C_reac load_shape_C*0;
}

object load {
	name N_1700093454;
	phases AB;
	nominal_voltage 12597.206;
	constant_power_A_real load_shape_A*1011.302;
	constant_power_B_real load_shape_B*1011.302;
	constant_power_C_real load_shape_C*0;
	constant_power_A_reac load_shape_A*332.398892936;
	constant_power_B_reac load_shape_B*332.398892936;
	constant_power_C_reac load_shape_C*0;
}

object load {
	name N_1700093455;
	phases ABC;
	nominal_voltage 12597.206;
	constant_power_A_real load_shape_A*0.0;
	constant_power_B_real load_shape_B*0.0;
	constant_power_C_real load_shape_C*0.0;
	constant_power_A_reac load_shape_A*0.0;
	constant_power_B_reac load_shape_B*0.0;
	constant_power_C_reac load_shape_C*0.0;
}

object load {
	name N_1700018711;
	phases AB;
	nominal_voltage 12597.206;
	constant_power_A_real load_shape_A*1320.143;
	constant_power_B_real load_shape_B*1320.143;
	constant_power_C_real load_shape_C*0;
	constant_power_A_reac load_shape_A*433.910020663;
	constant_power_B_reac load_shape_B*433.910020663;
	constant_power_C_reac load_shape_C*0;
}

object load {
	name N_1700018712;
	phases C;
	nominal_voltage 12597.206;
	constant_power_A_real load_shape_A*0;
	constant_power_B_real load_shape_B*0;
	constant_power_C_real load_shape_C*9204.666;
	constant_power_A_reac load_shape_A*0;
	constant_power_B_reac load_shape_B*0;
	constant_power_C_reac load_shape_C*3025.42740768;
}

object load {
	name N_1700093451;
	phases AB;
	nominal_voltage 12597.206;
	constant_power_A_real load_shape_A*1223.252;
	constant_power_B_real load_shape_B*1223.252;
	constant_power_C_real load_shape_C*0;
	constant_power_A_reac load_shape_A*402.063489028;
	constant_power_B_reac load_shape_B*402.063489028;
	constant_power_C_reac load_shape_C*0;
}

object load {
	name N_1700018999;
	phases AB;
	nominal_voltage 12597.206;
	constant_power_A_real load_shape_A*823.575;
	constant_power_B_real load_shape_B*823.575;
	constant_power_C_real load_shape_C*0;
	constant_power_A_reac load_shape_A*270.696011923;
	constant_power_B_reac load_shape_B*270.696011923;
	constant_power_C_reac load_shape_C*0;
}

object load {
	name N_1700096106;
	phases A;
	nominal_voltage 12597.206;
	constant_power_A_real load_shape_A*5964.864;
	constant_power_B_real load_shape_B*0;
	constant_power_C_real load_shape_C*0;
	constant_power_A_reac load_shape_A*3696.69069334;
	constant_power_B_reac load_shape_B*0;
	constant_power_C_reac load_shape_C*0;
}

object load {
	name N_1700093458;
	phases AB;
	nominal_voltage 12597.206;
	constant_power_A_real load_shape_A*0.0;
	constant_power_B_real load_shape_B*0.0;
	constant_power_C_real load_shape_C*0;
	constant_power_A_reac load_shape_A*0.0;
	constant_power_B_reac load_shape_B*0.0;
	constant_power_C_reac load_shape_C*0;
}

object load {
	name N_1700093459;
	phases ABC;
	nominal_voltage 12597.206;
	constant_power_A_real load_shape_A*454.177666667;
	constant_power_B_real load_shape_B*454.177666667;
	constant_power_C_real load_shape_C*454.177666667;
	constant_power_A_reac load_shape_A*157.506342151;
	constant_power_B_reac load_shape_B*157.506342151;
	constant_power_C_reac load_shape_C*157.506342151;
}

object load {
	name N_1700120790;
	phases A;
	nominal_voltage 12597.206;
	constant_power_A_real load_shape_A*0.0;
	constant_power_B_real load_shape_B*0;
	constant_power_C_real load_shape_C*0;
	constant_power_A_reac load_shape_A*0.0;
	constant_power_B_reac load_shape_B*0;
	constant_power_C_reac load_shape_C*0;
}

object load {
	name N_1700121704;
	phases ABC;
	nominal_voltage 12597.206;
	constant_power_A_real load_shape_A*16.1486666667;
	constant_power_B_real load_shape_B*16.1486666667;
	constant_power_C_real load_shape_C*16.1486666667;
	constant_power_A_reac load_shape_A*5.30781005317;
	constant_power_B_reac load_shape_B*5.30781005317;
	constant_power_C_reac load_shape_C*5.30781005317;
}

object load {
	name N_1700122424;
	phases AB;
	nominal_voltage 12597.206;
	constant_power_A_real load_shape_A*617.682;
	constant_power_B_real load_shape_B*617.682;
	constant_power_C_real load_shape_C*0;
	constant_power_A_reac load_shape_A*203.022255455;
	constant_power_B_reac load_shape_B*203.022255455;
	constant_power_C_reac load_shape_C*0;
}

object load {
	name N_1700094511;
	phases ABC;
	nominal_voltage 12597.206;
	constant_power_A_real load_shape_A*2024.62266667;
	constant_power_B_real load_shape_B*2024.62266667;
	constant_power_C_real load_shape_C*2024.62266667;
	constant_power_A_reac load_shape_A*1254.74843507;
	constant_power_B_reac load_shape_B*1254.74843507;
	constant_power_C_reac load_shape_C*1254.74843507;
}

object load {
	name N_1700094695;
	phases ABC;
	nominal_voltage 12597.206;
	constant_power_A_real load_shape_A*6626.95533333;
	constant_power_B_real load_shape_B*6626.95533333;
	constant_power_C_real load_shape_C*6626.95533333;
	constant_power_A_reac load_shape_A*4107.01804868;
	constant_power_B_reac load_shape_B*4107.01804868;
	constant_power_C_reac load_shape_C*4107.01804868;
}

object load {
	name N_1700094694;
	phases ABC;
	nominal_voltage 12597.206;
	constant_power_A_real load_shape_A*811.464;
	constant_power_B_real load_shape_B*811.464;
	constant_power_C_real load_shape_C*811.464;
	constant_power_A_reac load_shape_A*266.715318725;
	constant_power_B_reac load_shape_B*266.715318725;
	constant_power_C_reac load_shape_C*266.715318725;
}

object load {
	name N_1700094696;
	phases ABC;
	nominal_voltage 12597.206;
	constant_power_A_real load_shape_A*1822.766;
	constant_power_B_real load_shape_B*1822.766;
	constant_power_C_real load_shape_C*1822.766;
	constant_power_A_reac load_shape_A*599.11421166;
	constant_power_B_reac load_shape_B*599.11421166;
	constant_power_C_reac load_shape_C*599.11421166;
}

object load {
	name N_1700094693;
	phases ABC;
	nominal_voltage 12597.206;
	constant_power_A_real load_shape_A*763.018333333;
	constant_power_B_real load_shape_B*763.018333333;
	constant_power_C_real load_shape_C*763.018333333;
	constant_power_A_reac load_shape_A*250.791998127;
	constant_power_B_reac load_shape_B*250.791998127;
	constant_power_C_reac load_shape_C*250.791998127;
}

object load {
	name N_1700094692;
	phases A;
	nominal_voltage 12597.206;
	constant_power_A_real load_shape_A*0.0;
	constant_power_B_real load_shape_B*0;
	constant_power_C_real load_shape_C*0;
	constant_power_A_reac load_shape_A*0.0;
	constant_power_B_reac load_shape_B*0;
	constant_power_C_reac load_shape_C*0;
}

object load {
	name N_1700094699;
	phases ABC;
	nominal_voltage 12597.206;
	constant_power_A_real load_shape_A*2587.803;
	constant_power_B_real load_shape_B*2587.803;
	constant_power_C_real load_shape_C*2587.803;
	constant_power_A_reac load_shape_A*850.569713434;
	constant_power_B_reac load_shape_B*850.569713434;
	constant_power_C_reac load_shape_C*850.569713434;
}

object load {
	name N_1700094698;
	phases AB;
	nominal_voltage 12597.206;
	constant_power_A_real load_shape_A*2413.197;
	constant_power_B_real load_shape_B*2413.197;
	constant_power_C_real load_shape_C*0;
	constant_power_A_reac load_shape_A*885.714530153;
	constant_power_B_reac load_shape_B*885.714530153;
	constant_power_C_reac load_shape_C*0;
}

object load {
	name N_1700018396;
	phases ABC;
	nominal_voltage 12597.206;
	constant_power_A_real load_shape_A*31252.321;
	constant_power_B_real load_shape_B*31252.321;
	constant_power_C_real load_shape_C*31252.321;
	constant_power_A_reac load_shape_A*65244.0384896;
	constant_power_B_reac load_shape_B*65244.0384896;
	constant_power_C_reac load_shape_C*65244.0384896;
}

object load {
	name N_1700091740;
	phases ABC;
	nominal_voltage 12597.206;
	constant_power_A_real load_shape_A*3098.50033333;
	constant_power_B_real load_shape_B*3098.50033333;
	constant_power_C_real load_shape_C*3098.50033333;
	constant_power_A_reac load_shape_A*1920.27803912;
	constant_power_B_reac load_shape_B*1920.27803912;
	constant_power_C_reac load_shape_C*1920.27803912;
}

object load {
	name N_1700091741;
	phases ABC;
	nominal_voltage 12597.206;
	constant_power_A_real load_shape_A*16666.6666667;
	constant_power_B_real load_shape_B*16666.6666667;
	constant_power_C_real load_shape_C*16666.6666667;
	constant_power_A_reac load_shape_A*10329.0723067;
	constant_power_B_reac load_shape_B*10329.0723067;
	constant_power_C_reac load_shape_C*10329.0723067;
}

object load {
	name N_1700093094;
	phases ABC;
	nominal_voltage 12597.206;
	constant_power_A_real load_shape_A*1297.93866667;
	constant_power_B_real load_shape_B*1297.93866667;
	constant_power_C_real load_shape_C*1297.93866667;
	constant_power_A_reac load_shape_A*426.61180923;
	constant_power_B_reac load_shape_B*426.61180923;
	constant_power_C_reac load_shape_C*426.61180923;
}

object load {
	name N_1700093092;
	phases ABC;
	nominal_voltage 12597.206;
	constant_power_A_real load_shape_A*551.068666667;
	constant_power_B_real load_shape_B*551.068666667;
	constant_power_C_real load_shape_C*551.068666667;
	constant_power_A_reac load_shape_A*181.127511595;
	constant_power_B_reac load_shape_B*181.127511595;
	constant_power_C_reac load_shape_C*181.127511595;
}

object load {
	name N_1700091745;
	phases ABC;
	nominal_voltage 12597.206;
	constant_power_A_real load_shape_A*1005.24633333;
	constant_power_B_real load_shape_B*1005.24633333;
	constant_power_C_real load_shape_C*1005.24633333;
	constant_power_A_reac load_shape_A*622.995723784;
	constant_power_B_reac load_shape_B*622.995723784;
	constant_power_C_reac load_shape_C*622.995723784;
}

object load {
	name N_1700093090;
	phases AB;
	nominal_voltage 12597.206;
	constant_power_A_real load_shape_A*508.679;
	constant_power_B_real load_shape_B*508.679;
	constant_power_C_real load_shape_C*0;
	constant_power_A_reac load_shape_A*167.194701938;
	constant_power_B_reac load_shape_B*167.194701938;
	constant_power_C_reac load_shape_C*0;
}

object load {
	name N_1700093091;
	phases ABC;
	nominal_voltage 12597.206;
	constant_power_A_real load_shape_A*100.928333333;
	constant_power_B_real load_shape_B*100.928333333;
	constant_power_C_real load_shape_C*100.928333333;
	constant_power_A_reac load_shape_A*33.1735389289;
	constant_power_B_reac load_shape_B*33.1735389289;
	constant_power_C_reac load_shape_C*33.1735389289;
}

object load {
	name N_1700091748;
	phases ABC;
	nominal_voltage 12597.206;
	constant_power_A_real load_shape_A*5296.71966667;
	constant_power_B_real load_shape_B*5296.71966667;
	constant_power_C_real load_shape_C*5296.71966667;
	constant_power_A_reac load_shape_A*3282.61202553;
	constant_power_B_reac load_shape_B*3282.61202553;
	constant_power_C_reac load_shape_C*3282.61202553;
}

object load {
	name N_1700093047;
	phases ABC;
	nominal_voltage 12597.206;
	constant_power_A_real load_shape_A*18.167;
	constant_power_B_real load_shape_B*18.167;
	constant_power_C_real load_shape_C*18.167;
	constant_power_A_reac load_shape_A*5.97120413878;
	constant_power_B_reac load_shape_B*5.97120413878;
	constant_power_C_reac load_shape_C*5.97120413878;
}

object load {
	name N_1700093098;
	phases ABC;
	nominal_voltage 12597.206;
	constant_power_A_real load_shape_A*0.0;
	constant_power_B_real load_shape_B*0.0;
	constant_power_C_real load_shape_C*0.0;
	constant_power_A_reac load_shape_A*0.0;
	constant_power_B_reac load_shape_B*0.0;
	constant_power_C_reac load_shape_C*0.0;
}

object load {
	name N_1700010557;
	phases ABC;
	nominal_voltage 12597.206;
	constant_power_A_real load_shape_A*189.745333333;
	constant_power_B_real load_shape_B*189.745333333;
	constant_power_C_real load_shape_C*189.745333333;
	constant_power_A_reac load_shape_A*62.3662750985;
	constant_power_B_reac load_shape_B*62.3662750985;
	constant_power_C_reac load_shape_C*62.3662750985;
}

object load {
	name N_1700086894;
	phases AB;
	nominal_voltage 12597.206;
	constant_power_A_real load_shape_A*805.408;
	constant_power_B_real load_shape_B*805.408;
	constant_power_C_real load_shape_C*0;
	constant_power_A_reac load_shape_A*264.724807784;
	constant_power_B_reac load_shape_B*264.724807784;
	constant_power_C_reac load_shape_C*0;
}

object load {
	name N_1700093040;
	phases A;
	nominal_voltage 12597.206;
	constant_power_A_real load_shape_A*1822.766;
	constant_power_B_real load_shape_B*0;
	constant_power_C_real load_shape_C*0;
	constant_power_A_reac load_shape_A*599.11421166;
	constant_power_B_reac load_shape_B*0;
	constant_power_C_reac load_shape_C*0;
}

object load {
	name N_1700093522;
	phases AB;
	nominal_voltage 12597.206;
	constant_power_A_real load_shape_A*1556.315;
	constant_power_B_real load_shape_B*1556.315;
	constant_power_C_real load_shape_C*0;
	constant_power_A_reac load_shape_A*511.536003151;
	constant_power_B_reac load_shape_B*511.536003151;
	constant_power_C_reac load_shape_C*0;
}

object load {
	name N_1700009783;
	phases AB;
	nominal_voltage 12597.206;
	constant_power_A_real load_shape_A*0.0;
	constant_power_B_real load_shape_B*0.0;
	constant_power_C_real load_shape_C*0;
	constant_power_A_reac load_shape_A*0.0;
	constant_power_B_reac load_shape_B*0.0;
	constant_power_C_reac load_shape_C*0;
}

object load {
	name N_1700093521;
	phases ABC;
	nominal_voltage 12597.206;
	constant_power_A_real load_shape_A*2.01866666667;
	constant_power_B_real load_shape_B*2.01866666667;
	constant_power_C_real load_shape_C*2.01866666667;
	constant_power_A_reac load_shape_A*1.25105723779;
	constant_power_B_reac load_shape_B*1.25105723779;
	constant_power_C_reac load_shape_C*1.25105723779;
}

object load {
	name N_1700093526;
	phases ABC;
	nominal_voltage 12597.206;
	constant_power_A_real load_shape_A*567.217333333;
	constant_power_B_real load_shape_B*567.217333333;
	constant_power_C_real load_shape_C*567.217333333;
	constant_power_A_reac load_shape_A*194.073130249;
	constant_power_B_reac load_shape_B*194.073130249;
	constant_power_C_reac load_shape_C*194.073130249;
}

object load {
	name N_1700093524;
	phases A;
	nominal_voltage 12597.206;
	constant_power_A_real load_shape_A*1253.53;
	constant_power_B_real load_shape_B*0;
	constant_power_C_real load_shape_C*0;
	constant_power_A_reac load_shape_A*412.015386365;
	constant_power_B_reac load_shape_B*0;
	constant_power_C_reac load_shape_C*0;
}

object load {
	name N_1700121095;
	phases A;
	nominal_voltage 12597.206;
	constant_power_A_real load_shape_A*0.0;
	constant_power_B_real load_shape_B*0;
	constant_power_C_real load_shape_C*0;
	constant_power_A_reac load_shape_A*0.0;
	constant_power_B_reac load_shape_B*0;
	constant_power_C_reac load_shape_C*0;
}

object load {
	name N_1700018628;
	phases AB;
	nominal_voltage 12597.206;
	constant_power_A_real load_shape_A*4632.611;
	constant_power_B_real load_shape_B*4632.611;
	constant_power_C_real load_shape_C*0;
	constant_power_A_reac load_shape_A*1522.66560118;
	constant_power_B_reac load_shape_B*1522.66560118;
	constant_power_C_reac load_shape_C*0;
}

object load {
	name N_1700093911;
	phases ABC;
	nominal_voltage 12597.206;
	constant_power_A_real load_shape_A*0.0;
	constant_power_B_real load_shape_B*0.0;
	constant_power_C_real load_shape_C*0.0;
	constant_power_A_reac load_shape_A*0.0;
	constant_power_B_reac load_shape_B*0.0;
	constant_power_C_reac load_shape_C*0.0;
}

object load {
	name N_1700093529;
	phases A;
	nominal_voltage 12597.206;
	constant_power_A_real load_shape_A*6606.77;
	constant_power_B_real load_shape_B*0;
	constant_power_C_real load_shape_C*0;
	constant_power_A_reac load_shape_A*2171.54028557;
	constant_power_B_reac load_shape_B*0;
	constant_power_C_reac load_shape_C*0;
}

object load {
	name N_1700093917;
	phases ABC;
	nominal_voltage 12597.206;
	constant_power_A_real load_shape_A*559.143;
	constant_power_B_real load_shape_B*559.143;
	constant_power_C_real load_shape_C*559.143;
	constant_power_A_reac load_shape_A*294.236058568;
	constant_power_B_reac load_shape_B*294.236058568;
	constant_power_C_reac load_shape_C*294.236058568;
}

object load {
	name N_1700093856;
	phases ABC;
	nominal_voltage 12597.206;
	constant_power_A_real load_shape_A*407.750666667;
	constant_power_B_real load_shape_B*407.750666667;
	constant_power_C_real load_shape_C*407.750666667;
	constant_power_A_reac load_shape_A*134.021163009;
	constant_power_B_reac load_shape_B*134.021163009;
	constant_power_C_reac load_shape_C*134.021163009;
}

object load {
	name N_1700093854;
	phases ABC;
	nominal_voltage 12597.206;
	constant_power_A_real load_shape_A*86.7983333333;
	constant_power_B_real load_shape_B*86.7983333333;
	constant_power_C_real load_shape_C*86.7983333333;
	constant_power_A_reac load_shape_A*28.5292325227;
	constant_power_B_reac load_shape_B*28.5292325227;
	constant_power_C_reac load_shape_C*28.5292325227;
}

object load {
	name N_1700262919;
	phases ABC;
	nominal_voltage 12597.206;
	constant_power_A_real load_shape_A*4771.89233333;
	constant_power_B_real load_shape_B*4771.89233333;
	constant_power_C_real load_shape_C*4771.89233333;
	constant_power_A_reac load_shape_A*2957.35325705;
	constant_power_B_reac load_shape_B*2957.35325705;
	constant_power_C_reac load_shape_C*2957.35325705;
}

object load {
	name N_1700060041;
	phases ABC;
	nominal_voltage 12597.206;
	constant_power_A_real load_shape_A*1053.692;
	constant_power_B_real load_shape_B*1053.692;
	constant_power_C_real load_shape_C*1053.692;
	constant_power_A_reac load_shape_A*484.400114587;
	constant_power_B_reac load_shape_B*484.400114587;
	constant_power_C_reac load_shape_C*484.400114587;
}

object load {
	name N_1700094466;
	phases ABC;
	nominal_voltage 12597.206;
	constant_power_A_real load_shape_A*0.0;
	constant_power_B_real load_shape_B*0.0;
	constant_power_C_real load_shape_C*0.0;
	constant_power_A_reac load_shape_A*0.0;
	constant_power_B_reac load_shape_B*0.0;
	constant_power_C_reac load_shape_C*0.0;
}

object load {
	name N_1700061111;
	phases ABC;
	nominal_voltage 12597.206;
	constant_power_A_real load_shape_A*137.262666667;
	constant_power_B_real load_shape_B*137.262666667;
	constant_power_C_real load_shape_C*137.262666667;
	constant_power_A_reac load_shape_A*85.0677605408;
	constant_power_B_reac load_shape_B*85.0677605408;
	constant_power_C_reac load_shape_C*85.0677605408;
}

object load {
	name N_1700009949;
	phases ABC;
	nominal_voltage 12597.206;
	constant_power_A_real load_shape_A*276.543666667;
	constant_power_B_real load_shape_B*276.543666667;
	constant_power_C_real load_shape_C*276.543666667;
	constant_power_A_reac load_shape_A*90.8955076212;
	constant_power_B_reac load_shape_B*90.8955076212;
	constant_power_C_reac load_shape_C*90.8955076212;
}

object load {
	name N_1700009948;
	phases ABC;
	nominal_voltage 12597.206;
	constant_power_A_real load_shape_A*0.0;
	constant_power_B_real load_shape_B*0.0;
	constant_power_C_real load_shape_C*0.0;
	constant_power_A_reac load_shape_A*0.0;
	constant_power_B_reac load_shape_B*0.0;
	constant_power_C_reac load_shape_C*0.0;
}

object load {
	name N_1700054248;
	phases ABC;
	nominal_voltage 12597.206;
	constant_power_A_real load_shape_A*1879.286;
	constant_power_B_real load_shape_B*1879.286;
	constant_power_C_real load_shape_C*1879.286;
	constant_power_A_reac load_shape_A*1164.67685874;
	constant_power_B_reac load_shape_B*1164.67685874;
	constant_power_C_reac load_shape_C*1164.67685874;
}

object load {
	name N_1700009960;
	phases ABC;
	nominal_voltage 12597.206;
	constant_power_A_real load_shape_A*159.466666667;
	constant_power_B_real load_shape_B*159.466666667;
	constant_power_C_real load_shape_C*159.466666667;
	constant_power_A_reac load_shape_A*52.4141586392;
	constant_power_B_reac load_shape_B*52.4141586392;
	constant_power_C_reac load_shape_C*52.4141586392;
}

object load {
	name N_1700009944;
	phases ABC;
	nominal_voltage 12597.206;
	constant_power_A_real load_shape_A*2040.77133333;
	constant_power_B_real load_shape_B*2040.77133333;
	constant_power_C_real load_shape_C*2040.77133333;
	constant_power_A_reac load_shape_A*801.199593404;
	constant_power_B_reac load_shape_B*801.199593404;
	constant_power_C_reac load_shape_C*801.199593404;
}

object load {
	name N_1700093008;
	phases ABC;
	nominal_voltage 12597.206;
	constant_power_A_real load_shape_A*304.803666667;
	constant_power_B_real load_shape_B*304.803666667;
	constant_power_C_real load_shape_C*304.803666667;
	constant_power_A_reac load_shape_A*100.184120434;
	constant_power_B_reac load_shape_B*100.184120434;
	constant_power_C_reac load_shape_C*100.184120434;
}

object load {
	name N_1700093448;
	phases ABC;
	nominal_voltage 12597.206;
	constant_power_A_real load_shape_A*0.0;
	constant_power_B_real load_shape_B*0.0;
	constant_power_C_real load_shape_C*0.0;
	constant_power_A_reac load_shape_A*0.0;
	constant_power_B_reac load_shape_B*0.0;
	constant_power_C_reac load_shape_C*0.0;
}

object load {
	name N_1700009965;
	phases ABC;
	nominal_voltage 12597.206;
	constant_power_A_real load_shape_A*88.817;
	constant_power_B_real load_shape_B*88.817;
	constant_power_C_real load_shape_C*88.817;
	constant_power_A_reac load_shape_A*29.1927361697;
	constant_power_B_reac load_shape_B*29.1927361697;
	constant_power_C_reac load_shape_C*29.1927361697;
}

object load {
	name N_1700093005;
	phases ABC;
	nominal_voltage 12597.206;
	constant_power_A_real load_shape_A*694.387;
	constant_power_B_real load_shape_B*694.387;
	constant_power_C_real load_shape_C*694.387;
	constant_power_A_reac load_shape_A*228.233969743;
	constant_power_B_reac load_shape_B*228.233969743;
	constant_power_C_reac load_shape_C*228.233969743;
}

object load {
	name N_1700093007;
	phases ABC;
	nominal_voltage 12597.206;
	constant_power_A_real load_shape_A*1836.896;
	constant_power_B_real load_shape_B*1836.896;
	constant_power_C_real load_shape_C*1836.896;
	constant_power_A_reac load_shape_A*603.758518067;
	constant_power_B_reac load_shape_B*603.758518067;
	constant_power_C_reac load_shape_C*603.758518067;
}

object load {
	name N_1700093006;
	phases ABC;
	nominal_voltage 12597.206;
	constant_power_A_real load_shape_A*349.212;
	constant_power_B_real load_shape_B*349.212;
	constant_power_C_real load_shape_C*349.212;
	constant_power_A_reac load_shape_A*114.780433738;
	constant_power_B_reac load_shape_B*114.780433738;
	constant_power_C_reac load_shape_C*114.780433738;
}

object load {
	name N_1700080090;
	phases ABC;
	nominal_voltage 12597.206;
	constant_power_A_real load_shape_A*488.493333333;
	constant_power_B_real load_shape_B*488.493333333;
	constant_power_C_real load_shape_C*488.493333333;
	constant_power_A_reac load_shape_A*160.559994153;
	constant_power_B_reac load_shape_B*160.559994153;
	constant_power_C_reac load_shape_C*160.559994153;
}

object load {
	name N_1700120330;
	phases ABC;
	nominal_voltage 12597.206;
	constant_power_A_real load_shape_A*43666.6666667;
	constant_power_B_real load_shape_B*43666.6666667;
	constant_power_C_real load_shape_C*43666.6666667;
	constant_power_A_reac load_shape_A*27062.1694436;
	constant_power_B_reac load_shape_B*27062.1694436;
	constant_power_C_reac load_shape_C*27062.1694436;
}

object load {
	name N_1700064277;
	phases AB;
	nominal_voltage 12597.206;
	constant_power_A_real load_shape_A*887.16;
	constant_power_B_real load_shape_B*887.16;
	constant_power_C_real load_shape_C*0;
	constant_power_A_reac load_shape_A*291.59539075;
	constant_power_B_reac load_shape_B*291.59539075;
	constant_power_C_reac load_shape_C*0;
}

object load {
	name N_1700119080;
	phases ABC;
	nominal_voltage 12597.206;
	constant_power_A_real load_shape_A*466.289;
	constant_power_B_real load_shape_B*466.289;
	constant_power_C_real load_shape_C*466.289;
	constant_power_A_reac load_shape_A*170.887517263;
	constant_power_B_reac load_shape_B*170.887517263;
	constant_power_C_reac load_shape_C*170.887517263;
}

object load {
	name N_1700043129;
	phases A;
	nominal_voltage 12597.206;
	constant_power_A_real load_shape_A*1883.323;
	constant_power_B_real load_shape_B*0;
	constant_power_C_real load_shape_C*0;
	constant_power_A_reac load_shape_A*619.018335018;
	constant_power_B_reac load_shape_B*0;
	constant_power_C_reac load_shape_C*0;
}

object load {
	name N_1700018750;
	phases A;
	nominal_voltage 12597.206;
	constant_power_A_real load_shape_A*2258.776;
	constant_power_B_real load_shape_B*0;
	constant_power_C_real load_shape_C*0;
	constant_power_A_reac load_shape_A*742.423768359;
	constant_power_B_reac load_shape_B*0;
	constant_power_C_reac load_shape_C*0;
}

object load {
	name N_1700111796;
	phases A;
	nominal_voltage 12597.206;
	constant_power_A_real load_shape_A*3566.808;
	constant_power_B_real load_shape_B*0;
	constant_power_C_real load_shape_C*0;
	constant_power_A_reac load_shape_A*1172.35309582;
	constant_power_B_reac load_shape_B*0;
	constant_power_C_reac load_shape_C*0;
}

object load {
	name N_1700018751;
	phases ABC;
	nominal_voltage 12597.206;
	constant_power_A_real load_shape_A*421.880666667;
	constant_power_B_real load_shape_B*421.880666667;
	constant_power_C_real load_shape_C*421.880666667;
	constant_power_A_reac load_shape_A*149.24094895;
	constant_power_B_reac load_shape_B*149.24094895;
	constant_power_C_reac load_shape_C*149.24094895;
}

object load {
	name N_1700091818;
	phases ABC;
	nominal_voltage 12597.206;
	constant_power_A_real load_shape_A*111.021333333;
	constant_power_B_real load_shape_B*111.021333333;
	constant_power_C_real load_shape_C*111.021333333;
	constant_power_A_reac load_shape_A*36.4909476024;
	constant_power_B_reac load_shape_B*36.4909476024;
	constant_power_C_reac load_shape_C*36.4909476024;
}

object load {
	name N_1700064634;
	phases AB;
	nominal_voltage 12597.206;
	constant_power_A_real load_shape_A*2479.81;
	constant_power_B_real load_shape_B*2479.81;
	constant_power_C_real load_shape_C*0;
	constant_power_A_reac load_shape_A*815.074130864;
	constant_power_B_reac load_shape_B*815.074130864;
	constant_power_C_reac load_shape_C*0;
}

object load {
	name N_1700050960;
	phases AB;
	nominal_voltage 12597.206;
	constant_power_A_real load_shape_A*723.656;
	constant_power_B_real load_shape_B*723.656;
	constant_power_C_real load_shape_C*0;
	constant_power_A_reac load_shape_A*237.854224817;
	constant_power_B_reac load_shape_B*237.854224817;
	constant_power_C_reac load_shape_C*0;
}

object load {
	name N_1700043481;
	phases ABC;
	nominal_voltage 12597.206;
	constant_power_A_real load_shape_A*0.0;
	constant_power_B_real load_shape_B*0.0;
	constant_power_C_real load_shape_C*0.0;
	constant_power_A_reac load_shape_A*0.0;
	constant_power_B_reac load_shape_B*0.0;
	constant_power_C_reac load_shape_C*0.0;
}

object load {
	name N_1700091812;
	phases AB;
	nominal_voltage 12597.206;
	constant_power_A_real load_shape_A*90.836;
	constant_power_B_real load_shape_B*90.836;
	constant_power_C_real load_shape_C*0;
	constant_power_A_reac load_shape_A*29.856349378;
	constant_power_B_reac load_shape_B*29.856349378;
	constant_power_C_reac load_shape_C*0;
}

object load {
	name N_1700091813;
	phases ABC;
	nominal_voltage 12597.206;
	constant_power_A_real load_shape_A*726.684;
	constant_power_B_real load_shape_B*726.684;
	constant_power_C_real load_shape_C*726.684;
	constant_power_A_reac load_shape_A*238.849480288;
	constant_power_B_reac load_shape_B*238.849480288;
	constant_power_C_reac load_shape_C*238.849480288;
}

object load {
	name N_1700091814;
	phases ABC;
	nominal_voltage 12597.206;
	constant_power_A_real load_shape_A*754.944;
	constant_power_B_real load_shape_B*754.944;
	constant_power_C_real load_shape_C*754.944;
	constant_power_A_reac load_shape_A*248.1380931;
	constant_power_B_reac load_shape_B*248.1380931;
	constant_power_C_reac load_shape_C*248.1380931;
}

object load {
	name N_1700091815;
	phases ABC;
	nominal_voltage 12597.206;
	constant_power_A_real load_shape_A*0.0;
	constant_power_B_real load_shape_B*0.0;
	constant_power_C_real load_shape_C*0.0;
	constant_power_A_reac load_shape_A*0.0;
	constant_power_B_reac load_shape_B*0.0;
	constant_power_C_reac load_shape_C*0.0;
}

object load {
	name N_1700091816;
	phases ABC;
	nominal_voltage 12597.206;
	constant_power_A_real load_shape_A*369.397666667;
	constant_power_B_real load_shape_B*369.397666667;
	constant_power_C_real load_shape_C*369.397666667;
	constant_power_A_reac load_shape_A*121.415141523;
	constant_power_B_reac load_shape_B*121.415141523;
	constant_power_C_reac load_shape_C*121.415141523;
}

object load {
	name N_1700069004;
	phases AB;
	nominal_voltage 12597.206;
	constant_power_A_real load_shape_A*0.0;
	constant_power_B_real load_shape_B*0.0;
	constant_power_C_real load_shape_C*0;
	constant_power_A_reac load_shape_A*0.0;
	constant_power_B_reac load_shape_B*0.0;
	constant_power_C_reac load_shape_C*0;
}

object load {
	name N_1700069005;
	phases AB;
	nominal_voltage 12597.206;
	constant_power_A_real load_shape_A*0.0;
	constant_power_B_real load_shape_B*0.0;
	constant_power_C_real load_shape_C*0;
	constant_power_A_reac load_shape_A*0.0;
	constant_power_B_reac load_shape_B*0.0;
	constant_power_C_reac load_shape_C*0;
}

object load {
	name N_1700069007;
	phases AB;
	nominal_voltage 12597.206;
	constant_power_A_real load_shape_A*39.362;
	constant_power_B_real load_shape_B*39.362;
	constant_power_C_real load_shape_C*0;
	constant_power_A_reac load_shape_A*12.9376637481;
	constant_power_B_reac load_shape_B*12.9376637481;
	constant_power_C_reac load_shape_C*0;
}

object load {
	name N_1700118995;
	phases ABC;
	nominal_voltage 12597.206;
	constant_power_A_real load_shape_A*6855.05366667;
	constant_power_B_real load_shape_B*6855.05366667;
	constant_power_C_real load_shape_C*6855.05366667;
	constant_power_A_reac load_shape_A*4248.38069937;
	constant_power_B_reac load_shape_B*4248.38069937;
	constant_power_C_reac load_shape_C*4248.38069937;
}

object load {
	name N_1700094643;
	phases ABC;
	nominal_voltage 12597.206;
	constant_power_A_real load_shape_A*102.947;
	constant_power_B_real load_shape_B*102.947;
	constant_power_C_real load_shape_C*102.947;
	constant_power_A_reac load_shape_A*33.8370425758;
	constant_power_B_reac load_shape_B*33.8370425758;
	constant_power_C_reac load_shape_C*33.8370425758;
}

object load {
	name N_1700093678;
	phases ABC;
	nominal_voltage 12597.206;
	constant_power_A_real load_shape_A*528.864666667;
	constant_power_B_real load_shape_B*528.864666667;
	constant_power_C_real load_shape_C*528.864666667;
	constant_power_A_reac load_shape_A*173.829409724;
	constant_power_B_reac load_shape_B*173.829409724;
	constant_power_C_reac load_shape_C*173.829409724;
}

object load {
	name N_1700069003;
	phases AB;
	nominal_voltage 12597.206;
	constant_power_A_real load_shape_A*1365.56;
	constant_power_B_real load_shape_B*1365.56;
	constant_power_C_real load_shape_C*0;
	constant_power_A_reac load_shape_A*454.125557925;
	constant_power_B_reac load_shape_B*454.125557925;
	constant_power_C_reac load_shape_C*0;
}

object load {
	name N_1700070132;
	phases ABC;
	nominal_voltage 12597.206;
	constant_power_A_real load_shape_A*222.042333333;
	constant_power_B_real load_shape_B*222.042333333;
	constant_power_C_real load_shape_C*222.042333333;
	constant_power_A_reac load_shape_A*72.9817856435;
	constant_power_B_reac load_shape_B*72.9817856435;
	constant_power_C_reac load_shape_C*72.9817856435;
}

object load {
	name N_1700010413;
	phases ABC;
	nominal_voltage 12597.206;
	constant_power_A_real load_shape_A*417.843333333;
	constant_power_B_real load_shape_B*417.843333333;
	constant_power_C_real load_shape_C*417.843333333;
	constant_power_A_reac load_shape_A*137.338462122;
	constant_power_B_reac load_shape_B*137.338462122;
	constant_power_C_reac load_shape_C*137.338462122;
}

object load {
	name N_1700069008;
	phases AB;
	nominal_voltage 12597.206;
	constant_power_A_real load_shape_A*650.988;
	constant_power_B_real load_shape_B*650.988;
	constant_power_C_real load_shape_C*0;
	constant_power_A_reac load_shape_A*213.969408262;
	constant_power_B_reac load_shape_B*213.969408262;
	constant_power_C_reac load_shape_C*0;
}

object load {
	name N_1700093673;
	phases ABC;
	nominal_voltage 12597.206;
	constant_power_A_real load_shape_A*397.657666667;
	constant_power_B_real load_shape_B*397.657666667;
	constant_power_C_real load_shape_C*397.657666667;
	constant_power_A_reac load_shape_A*154.792287318;
	constant_power_B_reac load_shape_B*154.792287318;
	constant_power_C_reac load_shape_C*154.792287318;
}

object load {
	name N_1700070134;
	phases AB;
	nominal_voltage 12597.206;
	constant_power_A_real load_shape_A*1235.363;
	constant_power_B_real load_shape_B*1235.363;
	constant_power_C_real load_shape_C*0;
	constant_power_A_reac load_shape_A*406.044182226;
	constant_power_B_reac load_shape_B*406.044182226;
	constant_power_C_reac load_shape_C*0;
}

object load {
	name N_1700094649;
	phases ABC;
	nominal_voltage 12597.206;
	constant_power_A_real load_shape_A*781.185333333;
	constant_power_B_real load_shape_B*781.185333333;
	constant_power_C_real load_shape_C*781.185333333;
	constant_power_A_reac load_shape_A*256.763202266;
	constant_power_B_reac load_shape_B*256.763202266;
	constant_power_C_reac load_shape_C*256.763202266;
}

object load {
	name N_1700011450;
	phases AB;
	nominal_voltage 12597.206;
	constant_power_A_real load_shape_A*78.724;
	constant_power_B_real load_shape_B*78.724;
	constant_power_C_real load_shape_C*0;
	constant_power_A_reac load_shape_A*25.8753274961;
	constant_power_B_reac load_shape_B*25.8753274961;
	constant_power_C_reac load_shape_C*0;
}

object load {
	name N_1700011452;
	phases ABC;
	nominal_voltage 12597.206;
	constant_power_A_real load_shape_A*0.0;
	constant_power_B_real load_shape_B*0.0;
	constant_power_C_real load_shape_C*0.0;
	constant_power_A_reac load_shape_A*0.0;
	constant_power_B_reac load_shape_B*0.0;
	constant_power_C_reac load_shape_C*0.0;
}

object load {
	name N_1700011453;
	phases ABC;
	nominal_voltage 12597.206;
	constant_power_A_real load_shape_A*1752.116;
	constant_power_B_real load_shape_B*1752.116;
	constant_power_C_real load_shape_C*1752.116;
	constant_power_A_reac load_shape_A*1085.86397123;
	constant_power_B_reac load_shape_B*1085.86397123;
	constant_power_C_reac load_shape_C*1085.86397123;
}

object load {
	name N_1700093078;
	phases ABC;
	nominal_voltage 12597.206;
	constant_power_A_real load_shape_A*819.538333333;
	constant_power_B_real load_shape_B*819.538333333;
	constant_power_C_real load_shape_C*819.538333333;
	constant_power_A_reac load_shape_A*269.369223751;
	constant_power_B_reac load_shape_B*269.369223751;
	constant_power_C_reac load_shape_C*269.369223751;
}

object load {
	name N_1700065016;
	phases ABC;
	nominal_voltage 12597.206;
	constant_power_A_real load_shape_A*1929.75;
	constant_power_B_real load_shape_B*1929.75;
	constant_power_C_real load_shape_C*1929.75;
	constant_power_A_reac load_shape_A*634.278151969;
	constant_power_B_reac load_shape_B*634.278151969;
	constant_power_C_reac load_shape_C*634.278151969;
}

object load {
	name N_1700065015;
	phases ABC;
	nominal_voltage 12597.206;
	constant_power_A_real load_shape_A*601.533;
	constant_power_B_real load_shape_B*601.533;
	constant_power_C_real load_shape_C*601.533;
	constant_power_A_reac load_shape_A*197.714335841;
	constant_power_B_reac load_shape_B*197.714335841;
	constant_power_C_reac load_shape_C*197.714335841;
}

object load {
	name N_1700065014;
	phases ABC;
	nominal_voltage 12597.206;
	constant_power_A_real load_shape_A*807.426666667;
	constant_power_B_real load_shape_B*807.426666667;
	constant_power_C_real load_shape_C*807.426666667;
	constant_power_A_reac load_shape_A*265.388311431;
	constant_power_B_reac load_shape_B*265.388311431;
	constant_power_C_reac load_shape_C*265.388311431;
}

object load {
	name N_1700093075;
	phases ABC;
	nominal_voltage 12597.206;
	constant_power_A_real load_shape_A*46.427;
	constant_power_B_real load_shape_B*46.427;
	constant_power_C_real load_shape_C*46.427;
	constant_power_A_reac load_shape_A*15.2598169511;
	constant_power_B_reac load_shape_B*15.2598169511;
	constant_power_C_reac load_shape_C*15.2598169511;
}

object load {
	name N_1700093076;
	phases AB;
	nominal_voltage 12597.206;
	constant_power_A_real load_shape_A*853.854;
	constant_power_B_real load_shape_B*853.854;
	constant_power_C_real load_shape_C*0;
	constant_power_A_reac load_shape_A*280.648237943;
	constant_power_B_reac load_shape_B*280.648237943;
	constant_power_C_reac load_shape_C*0;
}

object load {
	name N_1700043133;
	phases ABC;
	nominal_voltage 12597.206;
	constant_power_A_real load_shape_A*1719.81933333;
	constant_power_B_real load_shape_B*1719.81933333;
	constant_power_C_real load_shape_C*1719.81933333;
	constant_power_A_reac load_shape_A*1065.84829491;
	constant_power_B_reac load_shape_B*1065.84829491;
	constant_power_C_reac load_shape_C*1065.84829491;
}

object load {
	name N_1700093071;
	phases ABC;
	nominal_voltage 12597.206;
	constant_power_A_real load_shape_A*171.578333333;
	constant_power_B_real load_shape_B*171.578333333;
	constant_power_C_real load_shape_C*171.578333333;
	constant_power_A_reac load_shape_A*56.3950709597;
	constant_power_B_reac load_shape_B*56.3950709597;
	constant_power_C_reac load_shape_C*56.3950709597;
}

object load {
	name N_1700093072;
	phases ABC;
	nominal_voltage 12597.206;
	constant_power_A_real load_shape_A*440.047666667;
	constant_power_B_real load_shape_B*440.047666667;
	constant_power_C_real load_shape_C*440.047666667;
	constant_power_A_reac load_shape_A*144.636673554;
...